/*--------------------------------*- C++ -*----------------------------------*\
| =========                 |                                                 |
| \\      /  F ield         | OpenFOAM: The Open Source CFD Toolbox           |
|  \\    /   O peration     | Version:  4.1                                   |
|   \\  /    A nd           | Web:      www.OpenFOAM.org                      |
|    \\/     M anipulation  |                                                 |
\*---------------------------------------------------------------------------*/
FoamFile
{
    version     2.0;
    format      ascii;
    class       volScalarField;
    location    "0";
    object      omega.gas;
}
// * * * * * * * * * * * * * * * * * * * * * * * * * * * * * * * * * * * * * //

dimensions      [0 0 -1 0 0 0 0];

internalField   uniform 1;

boundaryField
{
    inlet
    {
        type            turbulentMixingLengthFrequencyInlet;
        mixingLength    0.001;
        value           $internalField;
    }

    outlet
    {
        type            zeroGradient;
    }

    walls
    {
        type            omegaWallFunction;
        value           $internalField;
    }
    
    electrode_center
    {
        type            omegaWallFunction;
        value           $internalField;
    }

    electrode_sidewall
    {
        type            omegaWallFunction;
        value           $internalField;
    }

    back
    {
        type            omegaWallFunction;
        value           $internalField;
    }
    
    front
    {
        type            omegaWallFunction;
        value           $internalField;
    }
}


// ************************************************************************* //
