/*--------------------------------*- C++ -*----------------------------------*\
| =========                 |                                                 |
| \\      /  F ield         | OpenFOAM: The Open Source CFD Toolbox           |
|  \\    /   O peration     | Version:  1.6                                   |
|   \\  /    A nd           | Web:      www.OpenFOAM.org                      |
|    \\/     M anipulation  |                                                 |
\*---------------------------------------------------------------------------*/
FoamFile
{
    version     2.0;
    format      ascii;
    class       dictionary;
    location    "system";
    object      fvSolution;
}
// * * * * * * * * * * * * * * * * * * * * * * * * * * * * * * * * * * * * * //

#include "solverDict"

solvers
{
    "(p|rho)"
    {
        solver          PCG;
        preconditioner  DIC;
        tolerance       1e-09;
        relTol          0.01;
    }

    "(h|hFinal)"
    {
        solver          PCG;
        preconditioner  DIC;
        tolerance       1e-09;
        relTol          0.01;
    }

    "(p|rho)Final"
    {
        $p;
        relTol          0;
    }

    "(U|k|e|h|epsilon|omega)"
    {
        solver          smoothSolver;
        smoother        symGaussSeidel;
        tolerance       1e-09;
        relTol          0.01;
    }

    "(U|k|e|h|epsilon|omega)Final"
    {
        $U;
        relTol          0;
    }
}

PIMPLE
{
    momentumPredictor       no;
    nOuterCorrectors        1;
    nCorrectors             2;
    nNonOrthogonalCorrectors 0;
    solveEnergy	yes;
}

relaxationFactors
{
    fields
    {
    }
    equations
    {
        ".*"           0.7;
    }
}


// ************************************************************************* //
